<?xml version="1.0" encoding="UTF-8"?>

<!-- generated on Tue Jan 29 17:59:58 2019 by Eclipse SUMO GUI Version 1.0.1
<configuration xmlns:xsi="http://www.w3.org/2001/XMLSchema-instance" xsi:noNamespaceSchemaLocation="http://sumo.dlr.de/xsd/sumoConfiguration.xsd">

    <input>
        <net-file value="square/square.net.xml"/>
        <route-files value="square/square.rou.xml"/>
        <additional-files value="input_additional.add.xml"/>
    </input>

    <time>
        <begin value="0"/>
        <end value="180"/>
        <step-length value=".1"/>
    </time>

    <traci_server>
        <remote-port value="61722"/>
    </traci_server>

    <gui_only>
        <gui-settings-file value="square/settings.xml"/>
        <tracker-interval value="0.1"/>
    </gui_only>

</configuration>
