<?xml version="1.0" encoding="UTF-8"?>

<!-- generated on Wed Feb  6 15:22:03 2019 by Eclipse SUMO netedit Version 1.0.1
<configuration xmlns:xsi="http://www.w3.org/2001/XMLSchema-instance" xsi:noNamespaceSchemaLocation="http://sumo.dlr.de/xsd/netconvertConfiguration.xsd">

    <input>
        <sumo-net-file value="square/square.net.xml"/>
    </input>

    <output>
        <output-file value="square/square.net.xml"/>
    </output>

    <processing>
        <offset.disable-normalization value="true"/>
        <lefthand value="false"/>
    </processing>

    <junctions>
        <no-turnarounds value="true"/>
        <junctions.corner-detail value="0"/>
        <junctions.limit-turn-speed value="-1"/>
        <rectangular-lane-cut value="false"/>
    </junctions>

    <pedestrian>
        <walkingareas value="false"/>
    </pedestrian>

    <visualisation>
        <registry-viewport value="true"/>
    </visualisation>

</configuration>
-->

<net version="1.0" xmlns:xsi="http://www.w3.org/2001/XMLSchema-instance" xsi:noNamespaceSchemaLocation="http://sumo.dlr.de/xsd/net_file.xsd">

    <location netOffset="0.00,0.00" convBoundary="0.00,0.00,500.00,500.00" origBoundary="0.00,0.00,500.00,500.00" projParameter="!"/>

    <edge id=":0/0_0" function="internal">
        <lane id=":0/0_0_0" index="0" speed="13.90" length="14.19" shape="198.40,210.40 197.85,206.55 196.20,203.80 193.45,202.15 189.60,201.60"/>
    </edge>
    <edge id=":0/0_1" function="internal">
        <lane id=":0/0_1_0" index="0" speed="13.90" length="20.80" shape="198.40,210.40 198.40,189.60"/>
    </edge>
    <edge id=":0/0_2" function="internal">
        <lane id=":0/0_2_0" index="0" speed="13.90" length="19.35" shape="198.40,210.40 199.15,205.15 201.40,201.40 205.15,199.15 210.40,198.40"/>
    </edge>
    <edge id=":0/0_3" function="internal">
        <lane id=":0/0_3_0" index="0" speed="13.90" length="4.67" shape="198.40,210.40 199.20,209.20 200.00,208.80 200.80,209.20 201.60,210.40"/>
    </edge>
    <edge id=":0/0_4" function="internal">
        <lane id=":0/0_4_0" index="0" speed="13.90" length="14.19" shape="210.40,201.60 206.55,202.15 203.80,203.80 202.15,206.55 201.60,210.40"/>
    </edge>
    <edge id=":0/0_5" function="internal">
        <lane id=":0/0_5_0" index="0" speed="13.90" length="20.80" shape="210.40,201.60 189.60,201.60"/>
    </edge>
    <edge id=":0/0_6" function="internal">
        <lane id=":0/0_6_0" index="0" speed="13.90" length="6.96" shape="210.40,201.60 205.15,200.85 203.73,200.00"/>
    </edge>
    <edge id=":0/0_7" function="internal">
        <lane id=":0/0_7_0" index="0" speed="13.90" length="2.34" shape="210.40,201.60 209.20,200.80 208.80,200.00"/>
    </edge>
    <edge id=":0/0_16" function="internal">
        <lane id=":0/0_16_0" index="0" speed="13.90" length="12.40" shape="203.73,200.00 201.40,198.60 199.15,194.85 198.40,189.60"/>
    </edge>
    <edge id=":0/0_17" function="internal">
        <lane id=":0/0_17_0" index="0" speed="13.90" length="2.34" shape="208.80,200.00 209.20,199.20 210.40,198.40"/>
    </edge>
    <edge id=":0/0_8" function="internal">
        <lane id=":0/0_8_0" index="0" speed="13.90" length="14.19" shape="201.60,189.60 202.15,193.45 203.80,196.20 206.55,197.85 210.40,198.40"/>
    </edge>
    <edge id=":0/0_9" function="internal">
        <lane id=":0/0_9_0" index="0" speed="13.90" length="20.80" shape="201.60,189.60 201.60,210.40"/>
    </edge>
    <edge id=":0/0_10" function="internal">
        <lane id=":0/0_10_0" index="0" speed="13.90" length="6.96" shape="201.60,189.60 200.85,194.85 200.00,196.27"/>
    </edge>
    <edge id=":0/0_11" function="internal">
        <lane id=":0/0_11_0" index="0" speed="13.90" length="2.34" shape="201.60,189.60 200.80,190.80 200.00,191.20"/>
    </edge>
    <edge id=":0/0_18" function="internal">
        <lane id=":0/0_18_0" index="0" speed="13.90" length="12.40" shape="200.00,196.27 198.60,198.60 194.85,200.85 189.60,201.60"/>
    </edge>
    <edge id=":0/0_19" function="internal">
        <lane id=":0/0_19_0" index="0" speed="13.90" length="2.34" shape="200.00,191.20 199.20,190.80 198.40,189.60"/>
    </edge>
    <edge id=":0/0_12" function="internal">
        <lane id=":0/0_12_0" index="0" speed="13.90" length="14.19" shape="189.60,198.40 193.45,197.85 196.20,196.20 197.85,193.45 198.40,189.60"/>
    </edge>
    <edge id=":0/0_13" function="internal">
        <lane id=":0/0_13_0" index="0" speed="13.90" length="20.80" shape="189.60,198.40 210.40,198.40"/>
    </edge>
    <edge id=":0/0_14" function="internal">
        <lane id=":0/0_14_0" index="0" speed="13.90" length="19.35" shape="189.60,198.40 194.85,199.15 198.60,201.40 200.85,205.15 201.60,210.40"/>
    </edge>
    <edge id=":0/0_15" function="internal">
        <lane id=":0/0_15_0" index="0" speed="13.90" length="4.67" shape="189.60,198.40 190.80,199.20 191.20,200.00 190.80,200.80 189.60,201.60"/>
    </edge>
    <edge id=":0/1_0" function="internal">
        <lane id=":0/1_0_0" index="0" speed="13.90" length="14.19" shape="198.40,310.40 197.85,306.55 196.20,303.80 193.45,302.15 189.60,301.60"/>
    </edge>
    <edge id=":0/1_1" function="internal">
        <lane id=":0/1_1_0" index="0" speed="13.90" length="20.80" shape="198.40,310.40 198.40,289.60"/>
    </edge>
    <edge id=":0/1_2" function="internal">
        <lane id=":0/1_2_0" index="0" speed="13.90" length="6.96" shape="198.40,310.40 199.15,305.15 200.00,303.73"/>
    </edge>
    <edge id=":0/1_3" function="internal">
        <lane id=":0/1_3_0" index="0" speed="13.90" length="2.34" shape="198.40,310.40 199.20,309.20 200.00,308.80"/>
    </edge>
    <edge id=":0/1_16" function="internal">
        <lane id=":0/1_16_0" index="0" speed="13.90" length="12.40" shape="200.00,303.73 201.40,301.40 205.15,299.15 210.40,298.40"/>
    </edge>
    <edge id=":0/1_17" function="internal">
        <lane id=":0/1_17_0" index="0" speed="13.90" length="2.34" shape="200.00,308.80 200.80,309.20 201.60,310.40"/>
    </edge>
    <edge id=":0/1_4" function="internal">
        <lane id=":0/1_4_0" index="0" speed="13.90" length="14.19" shape="210.40,301.60 206.55,302.15 203.80,303.80 202.15,306.55 201.60,310.40"/>
    </edge>
    <edge id=":0/1_5" function="internal">
        <lane id=":0/1_5_0" index="0" speed="13.90" length="20.80" shape="210.40,301.60 189.60,301.60"/>
    </edge>
    <edge id=":0/1_6" function="internal">
        <lane id=":0/1_6_0" index="0" speed="13.90" length="6.96" shape="210.40,301.60 205.15,300.85 203.73,300.00"/>
    </edge>
    <edge id=":0/1_7" function="internal">
        <lane id=":0/1_7_0" index="0" speed="13.90" length="2.34" shape="210.40,301.60 209.20,300.80 208.80,300.00"/>
    </edge>
    <edge id=":0/1_18" function="internal">
        <lane id=":0/1_18_0" index="0" speed="13.90" length="12.40" shape="203.73,300.00 201.40,298.60 199.15,294.85 198.40,289.60"/>
    </edge>
    <edge id=":0/1_19" function="internal">
        <lane id=":0/1_19_0" index="0" speed="13.90" length="2.34" shape="208.80,300.00 209.20,299.20 210.40,298.40"/>
    </edge>
    <edge id=":0/1_8" function="internal">
        <lane id=":0/1_8_0" index="0" speed="13.90" length="14.19" shape="201.60,289.60 202.15,293.45 203.80,296.20 206.55,297.85 210.40,298.40"/>
    </edge>
    <edge id=":0/1_9" function="internal">
        <lane id=":0/1_9_0" index="0" speed="13.90" length="20.80" shape="201.60,289.60 201.60,310.40"/>
    </edge>
    <edge id=":0/1_10" function="internal">
        <lane id=":0/1_10_0" index="0" speed="13.90" length="6.96" shape="201.60,289.60 200.85,294.85 200.00,296.27"/>
    </edge>
    <edge id=":0/1_11" function="internal">
        <lane id=":0/1_11_0" index="0" speed="13.90" length="2.34" shape="201.60,289.60 200.80,290.80 200.00,291.20"/>
    </edge>
    <edge id=":0/1_20" function="internal">
        <lane id=":0/1_20_0" index="0" speed="13.90" length="12.40" shape="200.00,296.27 198.60,298.60 194.85,300.85 189.60,301.60"/>
    </edge>
    <edge id=":0/1_21" function="internal">
        <lane id=":0/1_21_0" index="0" speed="13.90" length="2.34" shape="200.00,291.20 199.20,290.80 198.40,289.60"/>
    </edge>
    <edge id=":0/1_12" function="internal">
        <lane id=":0/1_12_0" index="0" speed="13.90" length="14.19" shape="189.60,298.40 193.45,297.85 196.20,296.20 197.85,293.45 198.40,289.60"/>
    </edge>
    <edge id=":0/1_13" function="internal">
        <lane id=":0/1_13_0" index="0" speed="13.90" length="20.80" shape="189.60,298.40 210.40,298.40"/>
    </edge>
    <edge id=":0/1_14" function="internal">
        <lane id=":0/1_14_0" index="0" speed="13.90" length="6.96" shape="189.60,298.40 194.85,299.15 196.27,300.00"/>
    </edge>
    <edge id=":0/1_15" function="internal">
        <lane id=":0/1_15_0" index="0" speed="13.90" length="2.34" shape="189.60,298.40 190.80,299.20 191.20,300.00"/>
    </edge>
    <edge id=":0/1_22" function="internal">
        <lane id=":0/1_22_0" index="0" speed="13.90" length="12.40" shape="196.27,300.00 198.60,301.40 200.85,305.15 201.60,310.40"/>
    </edge>
    <edge id=":0/1_23" function="internal">
        <lane id=":0/1_23_0" index="0" speed="13.90" length="2.34" shape="191.20,300.00 190.80,300.80 189.60,301.60"/>
    </edge>
    <edge id=":1/0_0" function="internal">
        <lane id=":1/0_0_0" index="0" speed="13.90" length="14.19" shape="298.40,210.40 297.85,206.55 296.20,203.80 293.45,202.15 289.60,201.60"/>
    </edge>
    <edge id=":1/0_1" function="internal">
        <lane id=":1/0_1_0" index="0" speed="13.90" length="20.80" shape="298.40,210.40 298.40,189.60"/>
    </edge>
    <edge id=":1/0_2" function="internal">
        <lane id=":1/0_2_0" index="0" speed="13.90" length="6.96" shape="298.40,210.40 299.15,205.15 300.00,203.73"/>
    </edge>
    <edge id=":1/0_3" function="internal">
        <lane id=":1/0_3_0" index="0" speed="13.90" length="2.34" shape="298.40,210.40 299.20,209.20 300.00,208.80"/>
    </edge>
    <edge id=":1/0_16" function="internal">
        <lane id=":1/0_16_0" index="0" speed="13.90" length="12.40" shape="300.00,203.73 301.40,201.40 305.15,199.15 310.40,198.40"/>
    </edge>
    <edge id=":1/0_17" function="internal">
        <lane id=":1/0_17_0" index="0" speed="13.90" length="2.34" shape="300.00,208.80 300.80,209.20 301.60,210.40"/>
    </edge>
    <edge id=":1/0_4" function="internal">
        <lane id=":1/0_4_0" index="0" speed="13.90" length="14.19" shape="310.40,201.60 306.55,202.15 303.80,203.80 302.15,206.55 301.60,210.40"/>
    </edge>
    <edge id=":1/0_5" function="internal">
        <lane id=":1/0_5_0" index="0" speed="13.90" length="20.80" shape="310.40,201.60 289.60,201.60"/>
    </edge>
    <edge id=":1/0_6" function="internal">
        <lane id=":1/0_6_0" index="0" speed="13.90" length="6.96" shape="310.40,201.60 305.15,200.85 303.73,200.00"/>
    </edge>
    <edge id=":1/0_7" function="internal">
        <lane id=":1/0_7_0" index="0" speed="13.90" length="2.34" shape="310.40,201.60 309.20,200.80 308.80,200.00"/>
    </edge>
    <edge id=":1/0_18" function="internal">
        <lane id=":1/0_18_0" index="0" speed="13.90" length="12.40" shape="303.73,200.00 301.40,198.60 299.15,194.85 298.40,189.60"/>
    </edge>
    <edge id=":1/0_19" function="internal">
        <lane id=":1/0_19_0" index="0" speed="13.90" length="2.34" shape="308.80,200.00 309.20,199.20 310.40,198.40"/>
    </edge>
    <edge id=":1/0_8" function="internal">
        <lane id=":1/0_8_0" index="0" speed="13.90" length="14.19" shape="301.60,189.60 302.15,193.45 303.80,196.20 306.55,197.85 310.40,198.40"/>
    </edge>
    <edge id=":1/0_9" function="internal">
        <lane id=":1/0_9_0" index="0" speed="13.90" length="20.80" shape="301.60,189.60 301.60,210.40"/>
    </edge>
    <edge id=":1/0_10" function="internal">
        <lane id=":1/0_10_0" index="0" speed="13.90" length="6.96" shape="301.60,189.60 300.85,194.85 300.00,196.27"/>
    </edge>
    <edge id=":1/0_11" function="internal">
        <lane id=":1/0_11_0" index="0" speed="13.90" length="2.34" shape="301.60,189.60 300.80,190.80 300.00,191.20"/>
    </edge>
    <edge id=":1/0_20" function="internal">
        <lane id=":1/0_20_0" index="0" speed="13.90" length="12.40" shape="300.00,196.27 298.60,198.60 294.85,200.85 289.60,201.60"/>
    </edge>
    <edge id=":1/0_21" function="internal">
        <lane id=":1/0_21_0" index="0" speed="13.90" length="2.34" shape="300.00,191.20 299.20,190.80 298.40,189.60"/>
    </edge>
    <edge id=":1/0_12" function="internal">
        <lane id=":1/0_12_0" index="0" speed="13.90" length="14.19" shape="289.60,198.40 293.45,197.85 296.20,196.20 297.85,193.45 298.40,189.60"/>
    </edge>
    <edge id=":1/0_13" function="internal">
        <lane id=":1/0_13_0" index="0" speed="13.90" length="20.80" shape="289.60,198.40 310.40,198.40"/>
    </edge>
    <edge id=":1/0_14" function="internal">
        <lane id=":1/0_14_0" index="0" speed="13.90" length="19.35" shape="289.60,198.40 294.85,199.15 298.60,201.40 300.85,205.15 301.60,210.40"/>
    </edge>
    <edge id=":1/0_15" function="internal">
        <lane id=":1/0_15_0" index="0" speed="13.90" length="4.67" shape="289.60,198.40 290.80,199.20 291.20,200.00 290.80,200.80 289.60,201.60"/>
    </edge>
    <edge id=":1/1_0" function="internal">
        <lane id=":1/1_0_0" index="0" speed="13.90" length="14.19" shape="298.40,310.40 297.85,306.55 296.20,303.80 293.45,302.15 289.60,301.60"/>
    </edge>
    <edge id=":1/1_1" function="internal">
        <lane id=":1/1_1_0" index="0" speed="13.90" length="20.80" shape="298.40,310.40 298.40,289.60"/>
    </edge>
    <edge id=":1/1_2" function="internal">
        <lane id=":1/1_2_0" index="0" speed="13.90" length="6.96" shape="298.40,310.40 299.15,305.15 300.00,303.73"/>
    </edge>
    <edge id=":1/1_3" function="internal">
        <lane id=":1/1_3_0" index="0" speed="13.90" length="2.34" shape="298.40,310.40 299.20,309.20 300.00,308.80"/>
    </edge>
    <edge id=":1/1_16" function="internal">
        <lane id=":1/1_16_0" index="0" speed="13.90" length="12.40" shape="300.00,303.73 301.40,301.40 305.15,299.15 310.40,298.40"/>
    </edge>
    <edge id=":1/1_17" function="internal">
        <lane id=":1/1_17_0" index="0" speed="13.90" length="2.34" shape="300.00,308.80 300.80,309.20 301.60,310.40"/>
    </edge>
    <edge id=":1/1_4" function="internal">
        <lane id=":1/1_4_0" index="0" speed="13.90" length="14.19" shape="310.40,301.60 306.55,302.15 303.80,303.80 302.15,306.55 301.60,310.40"/>
    </edge>
    <edge id=":1/1_5" function="internal">
        <lane id=":1/1_5_0" index="0" speed="13.90" length="20.80" shape="310.40,301.60 289.60,301.60"/>
    </edge>
    <edge id=":1/1_6" function="internal">
        <lane id=":1/1_6_0" index="0" speed="13.90" length="6.96" shape="310.40,301.60 305.15,300.85 303.73,300.00"/>
    </edge>
    <edge id=":1/1_7" function="internal">
        <lane id=":1/1_7_0" index="0" speed="13.90" length="2.34" shape="310.40,301.60 309.20,300.80 308.80,300.00"/>
    </edge>
    <edge id=":1/1_18" function="internal">
        <lane id=":1/1_18_0" index="0" speed="13.90" length="12.40" shape="303.73,300.00 301.40,298.60 299.15,294.85 298.40,289.60"/>
    </edge>
    <edge id=":1/1_19" function="internal">
        <lane id=":1/1_19_0" index="0" speed="13.90" length="2.34" shape="308.80,300.00 309.20,299.20 310.40,298.40"/>
    </edge>
    <edge id=":1/1_8" function="internal">
        <lane id=":1/1_8_0" index="0" speed="13.90" length="14.19" shape="301.60,289.60 302.15,293.45 303.80,296.20 306.55,297.85 310.40,298.40"/>
    </edge>
    <edge id=":1/1_9" function="internal">
        <lane id=":1/1_9_0" index="0" speed="13.90" length="20.80" shape="301.60,289.60 301.60,310.40"/>
    </edge>
    <edge id=":1/1_10" function="internal">
        <lane id=":1/1_10_0" index="0" speed="13.90" length="6.96" shape="301.60,289.60 300.85,294.85 300.00,296.27"/>
    </edge>
    <edge id=":1/1_11" function="internal">
        <lane id=":1/1_11_0" index="0" speed="13.90" length="2.34" shape="301.60,289.60 300.80,290.80 300.00,291.20"/>
    </edge>
    <edge id=":1/1_20" function="internal">
        <lane id=":1/1_20_0" index="0" speed="13.90" length="12.40" shape="300.00,296.27 298.60,298.60 294.85,300.85 289.60,301.60"/>
    </edge>
    <edge id=":1/1_21" function="internal">
        <lane id=":1/1_21_0" index="0" speed="13.90" length="2.34" shape="300.00,291.20 299.20,290.80 298.40,289.60"/>
    </edge>
    <edge id=":1/1_12" function="internal">
        <lane id=":1/1_12_0" index="0" speed="13.90" length="14.19" shape="289.60,298.40 293.45,297.85 296.20,296.20 297.85,293.45 298.40,289.60"/>
    </edge>
    <edge id=":1/1_13" function="internal">
        <lane id=":1/1_13_0" index="0" speed="13.90" length="20.80" shape="289.60,298.40 310.40,298.40"/>
    </edge>
    <edge id=":1/1_14" function="internal">
        <lane id=":1/1_14_0" index="0" speed="13.90" length="6.96" shape="289.60,298.40 294.85,299.15 296.27,300.00"/>
    </edge>
    <edge id=":1/1_15" function="internal">
        <lane id=":1/1_15_0" index="0" speed="13.90" length="2.34" shape="289.60,298.40 290.80,299.20 291.20,300.00"/>
    </edge>
    <edge id=":1/1_22" function="internal">
        <lane id=":1/1_22_0" index="0" speed="13.90" length="12.40" shape="296.27,300.00 298.60,301.40 300.85,305.15 301.60,310.40"/>
    </edge>
    <edge id=":1/1_23" function="internal">
        <lane id=":1/1_23_0" index="0" speed="13.90" length="2.34" shape="291.20,300.00 290.80,300.80 289.60,301.60"/>
    </edge>
    <edge id=":bottom0_0" function="internal">
        <lane id=":bottom0_0_0" index="0" speed="13.90" length="4.67" shape="198.40,0.00 199.20,-1.20 200.00,-1.60 200.80,-1.20 201.60,0.00"/>
    </edge>
    <edge id=":bottom1_0" function="internal">
        <lane id=":bottom1_0_0" index="0" speed="13.90" length="4.67" shape="298.40,0.00 299.20,-1.20 300.00,-1.60 300.80,-1.20 301.60,0.00"/>
    </edge>
    <edge id=":left0_0" function="internal">
        <lane id=":left0_0_0" index="0" speed="13.90" length="4.67" shape="0.00,201.60 -1.20,200.80 -1.60,200.00 -1.20,199.20 0.00,198.40"/>
    </edge>
    <edge id=":left1_0" function="internal">
        <lane id=":left1_0_0" index="0" speed="13.90" length="4.67" shape="0.00,301.60 -1.20,300.80 -1.60,300.00 -1.20,299.20 0.00,298.40"/>
    </edge>
    <edge id=":right0_0" function="internal">
        <lane id=":right0_0_0" index="0" speed="13.90" length="4.67" shape="500.00,198.40 501.20,199.20 501.60,200.00 501.20,200.80 500.00,201.60"/>
    </edge>
    <edge id=":right1_0" function="internal">
        <lane id=":right1_0_0" index="0" speed="13.90" length="4.67" shape="500.00,298.40 501.20,299.20 501.60,300.00 501.20,300.80 500.00,301.60"/>
    </edge>
    <edge id=":top0_0" function="internal">
        <lane id=":top0_0_0" index="0" speed="13.90" length="4.67" shape="201.60,500.00 200.80,501.20 200.00,501.60 199.20,501.20 198.40,500.00"/>
    </edge>
    <edge id=":top1_0" function="internal">
        <lane id=":top1_0_0" index="0" speed="13.90" length="4.67" shape="301.60,500.00 300.80,501.20 300.00,501.60 299.20,501.20 298.40,500.00"/>
    </edge>

    <edge id="0/0to0/1" from="0/0" to="0/1" priority="-1">
        <lane id="0/0to0/1_0" index="0" speed="13.90" length="79.20" shape="204.80,210.40 204.80,289.60"/>
        <lane id="0/0to0/1_1" index="1" speed="13.90" length="79.20" shape="201.60,210.40 201.60,289.60"/>
    </edge>
    <edge id="0/0to1/0" from="0/0" to="1/0" priority="-1">
        <lane id="0/0to1/0_0" index="0" speed="13.90" length="79.20" shape="210.40,195.20 289.60,195.20"/>
        <lane id="0/0to1/0_1" index="1" speed="13.90" length="79.20" shape="210.40,198.40 289.60,198.40"/>
    </edge>
    <edge id="0/0tobottom0" from="0/0" to="bottom0" priority="-1">
        <lane id="0/0tobottom0_0" index="0" speed="13.90" length="189.60" shape="195.20,189.60 195.20,0.00"/>
        <lane id="0/0tobottom0_1" index="1" speed="13.90" length="189.60" shape="198.40,189.60 198.40,0.00"/>
    </edge>
    <edge id="0/0toleft0" from="0/0" to="left0" priority="-1">
        <lane id="0/0toleft0_0" index="0" speed="13.90" length="189.60" shape="189.60,204.80 0.00,204.80"/>
        <lane id="0/0toleft0_1" index="1" speed="13.90" length="189.60" shape="189.60,201.60 0.00,201.60"/>
    </edge>
    <edge id="0/1to0/0" from="0/1" to="0/0" priority="-1">
        <lane id="0/1to0/0_0" index="0" speed="13.90" length="79.20" shape="195.20,289.60 195.20,210.40"/>
        <lane id="0/1to0/0_1" index="1" speed="13.90" length="79.20" shape="198.40,289.60 198.40,210.40"/>
    </edge>
    <edge id="0/1to1/1" from="0/1" to="1/1" priority="-1">
        <lane id="0/1to1/1_0" index="0" speed="13.90" length="79.20" shape="210.40,295.20 289.60,295.20"/>
        <lane id="0/1to1/1_1" index="1" speed="13.90" length="79.20" shape="210.40,298.40 289.60,298.40"/>
    </edge>
    <edge id="0/1toleft1" from="0/1" to="left1" priority="-1">
        <lane id="0/1toleft1_0" index="0" speed="13.90" length="189.60" shape="189.60,304.80 0.00,304.80"/>
        <lane id="0/1toleft1_1" index="1" speed="13.90" length="189.60" shape="189.60,301.60 0.00,301.60"/>
    </edge>
    <edge id="0/1totop0" from="0/1" to="top0" priority="-1">
        <lane id="0/1totop0_0" index="0" speed="13.90" length="189.60" shape="204.80,310.40 204.80,500.00"/>
        <lane id="0/1totop0_1" index="1" speed="13.90" length="189.60" shape="201.60,310.40 201.60,500.00"/>
    </edge>
    <edge id="1/0to0/0" from="1/0" to="0/0" priority="-1">
        <lane id="1/0to0/0_0" index="0" speed="13.90" length="79.20" shape="289.60,204.80 210.40,204.80"/>
        <lane id="1/0to0/0_1" index="1" speed="13.90" length="79.20" shape="289.60,201.60 210.40,201.60"/>
    </edge>
    <edge id="1/0to1/1" from="1/0" to="1/1" priority="-1">
        <lane id="1/0to1/1_0" index="0" speed="13.90" length="79.20" shape="304.80,210.40 304.80,289.60"/>
        <lane id="1/0to1/1_1" index="1" speed="13.90" length="79.20" shape="301.60,210.40 301.60,289.60"/>
    </edge>
    <edge id="1/0tobottom1" from="1/0" to="bottom1" priority="-1">
        <lane id="1/0tobottom1_0" index="0" speed="13.90" length="189.60" shape="295.20,189.60 295.20,0.00"/>
        <lane id="1/0tobottom1_1" index="1" speed="13.90" length="189.60" shape="298.40,189.60 298.40,0.00"/>
    </edge>
    <edge id="1/0toright0" from="1/0" to="right0" priority="-1">
        <lane id="1/0toright0_0" index="0" speed="13.90" length="189.60" shape="310.40,195.20 500.00,195.20"/>
        <lane id="1/0toright0_1" index="1" speed="13.90" length="189.60" shape="310.40,198.40 500.00,198.40"/>
    </edge>
    <edge id="1/1to0/1" from="1/1" to="0/1" priority="-1">
        <lane id="1/1to0/1_0" index="0" speed="13.90" length="79.20" shape="289.60,304.80 210.40,304.80"/>
        <lane id="1/1to0/1_1" index="1" speed="13.90" length="79.20" shape="289.60,301.60 210.40,301.60"/>
    </edge>
    <edge id="1/1to1/0" from="1/1" to="1/0" priority="-1">
        <lane id="1/1to1/0_0" index="0" speed="13.90" length="79.20" shape="295.20,289.60 295.20,210.40"/>
        <lane id="1/1to1/0_1" index="1" speed="13.90" length="79.20" shape="298.40,289.60 298.40,210.40"/>
    </edge>
    <edge id="1/1toright1" from="1/1" to="right1" priority="-1">
        <lane id="1/1toright1_0" index="0" speed="13.90" length="189.60" shape="310.40,295.20 500.00,295.20"/>
        <lane id="1/1toright1_1" index="1" speed="13.90" length="189.60" shape="310.40,298.40 500.00,298.40"/>
    </edge>
    <edge id="1/1totop1" from="1/1" to="top1" priority="-1">
        <lane id="1/1totop1_0" index="0" speed="13.90" length="189.60" shape="304.80,310.40 304.80,500.00"/>
        <lane id="1/1totop1_1" index="1" speed="13.90" length="189.60" shape="301.60,310.40 301.60,500.00"/>
    </edge>
    <edge id="bottom0to0/0" from="bottom0" to="0/0" priority="-1">
        <lane id="bottom0to0/0_0" index="0" speed="13.90" length="189.60" shape="204.80,0.00 204.80,189.60"/>
        <lane id="bottom0to0/0_1" index="1" speed="13.90" length="189.60" shape="201.60,0.00 201.60,189.60"/>
    </edge>
    <edge id="bottom1to1/0" from="bottom1" to="1/0" priority="-1">
        <lane id="bottom1to1/0_0" index="0" speed="13.90" length="189.60" shape="304.80,0.00 304.80,189.60"/>
        <lane id="bottom1to1/0_1" index="1" speed="13.90" length="189.60" shape="301.60,0.00 301.60,189.60"/>
    </edge>
    <edge id="left0to0/0" from="left0" to="0/0" priority="-1">
        <lane id="left0to0/0_0" index="0" speed="13.90" length="189.60" shape="0.00,195.20 189.60,195.20"/>
        <lane id="left0to0/0_1" index="1" speed="13.90" length="189.60" shape="0.00,198.40 189.60,198.40"/>
    </edge>
    <edge id="left1to0/1" from="left1" to="0/1" priority="-1">
        <lane id="left1to0/1_0" index="0" speed="13.90" length="189.60" shape="0.00,295.20 189.60,295.20"/>
        <lane id="left1to0/1_1" index="1" speed="13.90" length="189.60" shape="0.00,298.40 189.60,298.40"/>
    </edge>
    <edge id="right0to1/0" from="right0" to="1/0" priority="-1">
        <lane id="right0to1/0_0" index="0" speed="13.90" length="189.60" shape="500.00,204.80 310.40,204.80"/>
        <lane id="right0to1/0_1" index="1" speed="13.90" length="189.60" shape="500.00,201.60 310.40,201.60"/>
    </edge>
    <edge id="right1to1/1" from="right1" to="1/1" priority="-1">
        <lane id="right1to1/1_0" index="0" speed="13.90" length="189.60" shape="500.00,304.80 310.40,304.80"/>
        <lane id="right1to1/1_1" index="1" speed="13.90" length="189.60" shape="500.00,301.60 310.40,301.60"/>
    </edge>
    <edge id="top0to0/1" from="top0" to="0/1" priority="-1">
        <lane id="top0to0/1_0" index="0" speed="13.90" length="189.60" shape="195.20,500.00 195.20,310.40"/>
        <lane id="top0to0/1_1" index="1" speed="13.90" length="189.60" shape="198.40,500.00 198.40,310.40"/>
    </edge>
    <edge id="top1to1/1" from="top1" to="1/1" priority="-1">
        <lane id="top1to1/1_0" index="0" speed="13.90" length="189.60" shape="295.20,500.00 295.20,310.40"/>
        <lane id="top1to1/1_1" index="1" speed="13.90" length="189.60" shape="298.40,500.00 298.40,310.40"/>
    </edge>

    <tlLogic id="0/0" type="static" programID="0" offset="0">
        <phase duration="2"  state="rrrruuuurrrruuuu"/>
        <phase duration="10000" state="rrrrGGggrrrrGGgg"/>
    </tlLogic>
    <tlLogic id="0/0" type="static" programID="1" offset="0">
        <phase duration="2"  state="uuuurrrruuuurrrr"/>
        <phase duration="10000" state="GGggrrrrGGggrrrr"/>
    </tlLogic>
    <tlLogic id="0/1" type="static" programID="0" offset="0">
        <phase duration="2"  state="rrrruuuurrrruuuu"/>
        <phase duration="10000" state="rrrrGGggrrrrGGgg"/>
    </tlLogic>
    <tlLogic id="0/1" type="static" programID="1" offset="0">
        <phase duration="2"  state="uuuurrrruuuurrrr"/>
        <phase duration="10000" state="GGggrrrrGGggrrrr"/>
    </tlLogic>
    <tlLogic id="1/0" type="static" programID="0" offset="0">
        <phase duration="2"  state="rrrruuuurrrruuuu"/>
        <phase duration="10000" state="rrrrGGggrrrrGGgg"/>
    </tlLogic>
    <tlLogic id="1/0" type="static" programID="1" offset="0">
        <phase duration="2"  state="uuuurrrruuuurrrr"/>
        <phase duration="10000" state="GGggrrrrGGggrrrr"/>
    </tlLogic>
    <tlLogic id="1/1" type="static" programID="0" offset="0">
        <phase duration="2"  state="rrrruuuurrrruuuu"/>
        <phase duration="10000" state="rrrrGGggrrrrGGgg"/>
    </tlLogic>
    <tlLogic id="1/1" type="static" programID="1" offset="0">
        <phase duration="2"  state="uuuurrrruuuurrrr"/>
        <phase duration="10000" state="GGggrrrrGGggrrrr"/>
    </tlLogic>
    <tlLogic id="bottom0" type="static" programID="0" offset="0">
        <phase duration="31" state="G"/>
        <phase duration="4"  state="y"/>
    </tlLogic>
    <tlLogic id="bottom1" type="static" programID="0" offset="0">
        <phase duration="31" state="G"/>
        <phase duration="4"  state="y"/>
    </tlLogic>
    <tlLogic id="left0" type="static" programID="0" offset="0">
        <phase duration="31" state="G"/>
        <phase duration="4"  state="y"/>
    </tlLogic>
    <tlLogic id="left1" type="static" programID="0" offset="0">
        <phase duration="31" state="G"/>
        <phase duration="4"  state="y"/>
    </tlLogic>
    <tlLogic id="right0" type="static" programID="0" offset="0">
        <phase duration="31" state="G"/>
        <phase duration="4"  state="y"/>
    </tlLogic>
    <tlLogic id="right1" type="static" programID="0" offset="0">
        <phase duration="31" state="G"/>
        <phase duration="4"  state="y"/>
    </tlLogic>
    <tlLogic id="top0" type="static" programID="0" offset="0">
        <phase duration="31" state="G"/>
        <phase duration="4"  state="y"/>
    </tlLogic>
    <tlLogic id="top1" type="static" programID="0" offset="0">
        <phase duration="31" state="G"/>
        <phase duration="4"  state="y"/>
    </tlLogic>

    <junction id="0/0" type="traffic_light" x="200.00" y="200.00" incLanes="0/1to0/0_0 0/1to0/0_1 1/0to0/0_0 1/0to0/0_1 bottom0to0/0_0 bottom0to0/0_1 left0to0/0_0 left0to0/0_1" intLanes=":0/0_0_0 :0/0_1_0 :0/0_2_0 :0/0_3_0 :0/0_4_0 :0/0_5_0 :0/0_16_0 :0/0_17_0 :0/0_8_0 :0/0_9_0 :0/0_18_0 :0/0_19_0 :0/0_12_0 :0/0_13_0 :0/0_14_0 :0/0_15_0" shape="193.60,210.40 206.40,210.40 210.40,206.40 210.40,193.60 206.40,189.60 193.60,189.60 189.60,193.60 189.60,206.40">
        <request index="0"  response="0000000000000000" foes="1000010000100000" cont="0"/>
        <request index="1"  response="0000000001000000" foes="0111110001100000" cont="0"/>
        <request index="2"  response="0000000001000000" foes="0110001111100000" cont="0"/>
        <request index="3"  response="0000000000010000" foes="0100001000010000" cont="0"/>
        <request index="4"  response="0000000000000000" foes="0100001000001000" cont="0"/>
        <request index="5"  response="0000010000000111" foes="1100011000000111" cont="0"/>